/*--------------------------------*- C++ -*----------------------------------*\
|       o          |                                                          |
|    o     o       | HELYX                                                  |
|   o   O   o      | Version: v2.5.0                                           |
|    o     o       | Web:     http://www.engys.com                            |
|       o          |                                                          |
\*---------------------------------------------------------------------------*/
FoamFile
{
    version 2.0;
    format ascii;
    class dictionary;
    location system;
    object controlDict;
}

    startFrom startTime;
    startTime 0;
    stopAt endTime;
    endTime 100.0;
    deltaT 1.0;
    writeControl timeStep;
    writeInterval 100.0;
    purgeWrite 0;
    writeFormat ascii;
    writePrecision 10;
    writeCompression uncompressed;
    timeFormat general;
    timePrecision 6;
    graphFormat raw;
    runTimeModifiable yes;
    include "$FOAM_CONFIG/controlDict.libs";
    functions
    (
    FR1
    {
        type forces;
        functionObjectLibs ( "libforces.so");
        patches (surface-0-255-0-GREEN );
        rhoName rhoInf;
        rhoInf 1.2;
        CofR ( -0.31 0.0 0.0 );
        outputControl timeStep;
        outputInterval 1;
    }

    FR2
    {
        type forces;
        functionObjectLibs ( "libforces.so");
        patches (surface-0-250-0-GREEN );
        rhoName rhoInf;
        rhoInf 1.2;
        CofR ( -0.779 0.0 0.0 );
        outputControl timeStep;
        outputInterval 1;
    }

    FR3
    {
        type forces;
        functionObjectLibs ( "libforces.so");
        patches (surface-0-245-0-GREEN2 );
        rhoName rhoInf;
        rhoInf 1.2;
        CofR ( -1.18 0.0 0.0 );
        outputControl timeStep;
        outputInterval 1;
    }

    SR1_in_u
    {
        type surfaceReport;
        functionObjectLibs ( "libreport.so");
        region region0;
        logToFile true;
        weighting flux;
        fluxName phi;
        homogeneity false;
        fields (U );
        outputControl timeStep;
        outputInterval 1;
        surfaces
        (
        
        {
            type patch;
            name surface-255-0-0-RED;
        }

        );
        constraints
        (
        
        {
            type boundBox;
            min (-1000 -1000 -1000);
            max (1000 1000 1000);
            keepInside true;
        }

        );
    }

    SR2_U_out
    {
        type surfaceReport;
        functionObjectLibs ( "libreport.so");
        region region0;
        logToFile true;
        weighting flux;
        fluxName phi;
        homogeneity false;
        fields (U );
        outputControl timeStep;
        outputInterval 1;
        surfaces
        (
        
        {
            type patch;
            name surface-0-0-255-BLUE1;
        }

        );
        constraints
        (
        
        {
            type boundBox;
            min (-1000 -1000 -1000);
            max (1000 1000 1000);
            keepInside true;
        }

        );
    }

    SR3_in_P
    {
        type surfaceReport;
        functionObjectLibs ( "libreport.so");
        region region0;
        logToFile true;
        weighting flux;
        fluxName phi;
        homogeneity false;
        fields (p );
        outputControl timeStep;
        outputInterval 1;
        surfaces
        (
        
        {
            type patch;
            name surface-255-0-0-RED;
        }

        );
        constraints
        (
        
        {
            type boundBox;
            min (-1000 -1000 -1000);
            max (1000 1000 1000);
            keepInside true;
        }

        );
    }

    SR4_out_p
    {
        type surfaceReport;
        functionObjectLibs ( "libreport.so");
        region region0;
        logToFile true;
        weighting flux;
        fluxName phi;
        homogeneity false;
        fields ();
        outputControl timeStep;
        outputInterval 1;
        surfaces
        (
        
        {
            type patch;
            name surface-0-0-255-BLUE1;
        }

        );
        constraints
        (
        
        {
            type boundBox;
            min (-1000 -1000 -1000);
            max (1000 1000 1000);
            keepInside true;
        }

        );
    }

    );
    libs ( "libLEMOS-2.2.x.so"  );