/*--------------------------------*- C++ -*----------------------------------*\
|       o          |                                                          |
|    o     o       | HELYX                                                  |
|   o   O   o      | Version: v2.5.0                                           |
|    o     o       | Web:     http://www.engys.com                            |
|       o          |                                                          |
\*---------------------------------------------------------------------------*/
FoamFile
{
    version 2.0;
    format ascii;
    class dictionary;
    location system;
    object snappyHexMeshDict;
}

    castellatedMesh true;
    snap true;
    addLayers true;
    autoBlockMesh true;
    blockData (0.05 0);
    crackDetection false;
    crackTol 0.05;
    finalDecomposition ptscotch;
    geometry
    {
        surface-0-0-255-BLUE1.stl
        {
            type triSurfaceMesh;
            name surface-0-0-255-BLUE1;
            appendRegionName false;
        }

        surface-0-245-0-GREEN2.stl
        {
            type triSurfaceMesh;
            name surface-0-245-0-GREEN2;
            appendRegionName false;
        }

        surface-0-250-0-GREEN.stl
        {
            type triSurfaceMesh;
            name surface-0-250-0-GREEN;
            appendRegionName false;
        }

        surface-0-255-0-GREEN.stl
        {
            type triSurfaceMesh;
            name surface-0-255-0-GREEN;
            appendRegionName false;
        }

        surface-170-170-170-GRAY67.stl
        {
            type triSurfaceMesh;
            name surface-170-170-170-GRAY67;
            appendRegionName false;
        }

        surface-170-170-175-GRAY67.stl
        {
            type triSurfaceMesh;
            name surface-170-170-175-GRAY67;
            appendRegionName false;
        }

        surface-170-170-180-GRAY68.stl
        {
            type triSurfaceMesh;
            name surface-170-170-180-GRAY68;
            appendRegionName false;
        }

        surface-255-0-0-RED.stl
        {
            type triSurfaceMesh;
            name surface-255-0-0-RED;
            appendRegionName false;
        }

        surface-255-255-0-YELLOW.stl
        {
            type triSurfaceMesh;
            name surface-255-255-0-YELLOW;
            appendRegionName false;
        }

        surface-51-51-51-GRAY20.stl
        {
            type triSurfaceMesh;
            name surface-51-51-51-GRAY20;
            appendRegionName false;
        }

    }

    castellatedMeshControls
    {
        features
        (
        );
        refinementSurfaces
        {
            surface-0-0-255-BLUE1
            {
                level ( 0 2 );
            }

            surface-0-245-0-GREEN2
            {
                level ( 4 4 );
            }

            surface-0-250-0-GREEN
            {
                level ( 4 4 );
            }

            surface-0-255-0-GREEN
            {
                level (4 4 );
            }

            surface-170-170-170-GRAY67
            {
                faceType internal;
                faceZone MRF1;
                cellZone MRF1;
                level ( 3 3 );
                cellZoneInside inside;
            }

            surface-170-170-175-GRAY67
            {
                faceType internal;
                faceZone MRF2;
                cellZone MRF2;
                level ( 3 3 );
                cellZoneInside inside;
            }

            surface-170-170-180-GRAY68
            {
                faceType internal;
                faceZone MRF3;
                cellZone MRF3;
                level ( 3 3 );
                cellZoneInside inside;
            }

            surface-255-0-0-RED
            {
                level ( 0 2 );
            }

            surface-255-255-0-YELLOW
            {
                faceType internal;
                faceZone HE;
                cellZone HE;
                level ( 0 2 );
                cellZoneInside inside;
            }

            surface-51-51-51-GRAY20
            {
                level ( 0 1 );
                proximityIncrement 2;
            }

        }

        refinementRegions
        {
            surface-170-170-170-GRAY67
            {
                mode distance;
                levels ( ( 0.01 3 ) ( 0.02 2 ) ( 0.03 1 ) );
            }

            surface-170-170-175-GRAY67
            {
                mode distance;
                levels ( ( 0.01 3 ) ( 0.02 2 ) ( 0.03 1 ) );
            }

            surface-170-170-180-GRAY68
            {
                mode distance;
                levels ( ( 0.01 3 ) ( 0.02 2 ) ( 0.03 1 ) );
            }

            surface-255-255-0-YELLOW
            {
                mode inside;
                levels (( 1E5 1 ));
            }

        }

        locationInMesh ( -0.8221644261002443 0.01019057365869682 0.8891459784368708 );
        maxLocalCells 100000000;
        maxGlobalCells 100000000;
        minRefinementCells 100;
        nCellsBetweenLevels 2;
        resolveFeatureAngle -60.;
        featureRefineAngle 20.;
        refineSurfaceBoundary false;
        refineFeatureEdgesOnly false;
        minBaffleAngle -60.;
        curvatureRefineAngle -60.;
        allowFreeStandingZoneFaces false;
        balanceThenRefine true;
        maxLoadUnbalance 0.10;
        splitCells false;
        minZoneRegionSize 0;
        wrapper
        {
            wrap false;
            volSources true;
            volDistance 1.0;
            meshInMM false;
            maxIter 200;
            writeFields false;
            invert false;
            sigma 3.0;
            cutoff 1000;
        }

    }

    snapControls
    {
        featureEdges
        {
        }

        nOuterIter 1;
        nPreFeatureIter 0;
        nSolveIter 10;
        nFeatureIter 60;
        globalFeatureEdges true;
        globalRegionSnap false;
        nSmoothPatch 2;
        tolerance 4.0;
        nRelaxIter 5;
        zoneFeatureSnapping true;
        directFeatureSnapping true;
        regionFeatureLines false;
        geometryFeatureLines true;
        snapSurfBoundary true;
        collapseTol 0.25;
        enlargeStencil true;
        featureSnapChecks true;
        smoothSnappedSurface true;
        splitDegenerateCells true;
        explicitFeatureSnap true;
        implicitFeatureSnap false;
        nSliverSmooths 10;
    }

    addLayersControls
    {
        layers
        {
            surface-0-0-255-BLUE1
            {
                nSurfaceLayers 3;
                expansionRatio 1.25;
                finalLayerThickness 0.4;
            }

            surface-0-245-0-GREEN2
            {
                nSurfaceLayers 3;
                expansionRatio 1.25;
                finalLayerThickness 0.4;
            }

            surface-0-250-0-GREEN
            {
                nSurfaceLayers 3;
                expansionRatio 1.25;
                finalLayerThickness 0.4;
            }

            surface-0-255-0-GREEN
            {
                nSurfaceLayers 3;
                expansionRatio 1.25;
                finalLayerThickness 0.4;
            }

            surface-255-0-0-RED
            {
                nSurfaceLayers 3;
                expansionRatio 1.25;
                finalLayerThickness 0.4;
            }

            surface-51-51-51-GRAY20
            {
                nSurfaceLayers 3;
                expansionRatio 1.25;
                finalLayerThickness 0.4;
            }

        }

        relativeSizes true;
        expansionRatio 1.25;
        finalLayerThickness 0.4;
        minThickness 0.2;
        featureAngleMerge 45;
        featureAngleTerminate 80;
        nRelaxIter 5;
        nRelaxedIter 1000;
        maxFaceThicknessRatio 2.0;
        maxThicknessToMedialRatio 0.3;
        minMedialAxisAngle 90;
        noErrors false;
        maxLayerIter 30;
        projectGrownUp 0.0;
        preBalance false;
        growConvexEdge true;
        growConcaveEdge true;
        growZoneLayers false;
        growUpPatches true;
        nSmoothSurfaceNormals 6;
        nSmoothNormals 3;
        maxCellDistortion 50;
        maxProjectionDistance 1e15;
        layerRecovery 1;
        writeVTK true;
    }

    meshQualityControls
    {
        nVolSmoothIter 8;
        maxNonOrtho 70;
        maxBoundarySkewness 20;
        maxInternalSkewness 6;
        maxConcave 80;
        minFlatness 0.5;
        minVol 1e-14;
        minTetQuality -1e30;
        minArea 1e-13;
        minTwist 0.05;
        minDeterminant 0.0001;
        minFaceWeight 0.08;
        minVolRatio 0.02;
        minTriangleTwist -0.99;
        minVolCollapseRatio -1;
        minInternalWarpage -1;
        maxBoundaryWarpage -1;
        faceFaceCells true;
        minSnapRelativeVolume -1;
        nSmoothScale 10;
        smoothAlignedEdges false;
        errorReduction 0.75;
        minSnapRelativeTetVolume -1;
        maxGaussGreenCentroid -1;
        baffleAllPointsBoundary false;
    }

    debug 0;
    mergeTolerance 1E-6;